   450
 i =       42, E =    -12170.6849105991
Ba        18.2406046553       18.1584405289       10.1601863898
Ba        18.2433217699       18.1807084244        6.1175065648
Ba        18.2493151397       14.1289231571       10.1853738253
Ba        18.2395885608       14.1340004178        6.1408185457
Ba        18.2386798339       10.0751818438       10.1780306539
Ba        18.2219479309       10.0807029536        6.1348328992
Ba        18.2289532488        6.0384023718       10.1675278519
Ba        18.2342271999        6.0429560245        6.1221637934
Ba        18.1880335723        1.9814103396       10.1720189672
Ba        18.2013246304        1.9805034110        6.1308742987
Ba        14.1965831780       18.2244548258       10.1912402081
Ba        14.1795426340       18.2245464031        6.1503967898
Ba        14.1880467873       14.1797026756       10.1837187634
Ba        14.1748444990       14.1747214430        6.1383221345
Ba        14.1867338483       10.1313790092       10.1991833695
Ba        14.1714359929       10.1299556381        6.1519644352
Ba        14.1694108811        6.0862198100       10.1779832858
Ba        14.1655551957        6.0825702709        6.1406411806
Ba        14.1592945846        2.0296312519       10.1955270933
Ba        14.1461729098        2.0285410127        6.1408038257
Ba        10.1528559949       18.2466728575       10.1699150876
Ba        10.1584811712       18.2205890039        6.1096611928
Ba        10.1474952998       14.1865737682       10.2024717860
Ba        10.1340692542       14.1777437797        6.1471260940
Ba        10.1435048543       10.1478154452       10.1956129591
Ba        10.1250747457       10.1322595242        6.1481135452
Ba        10.1261465902        6.0999480078       10.2005160419
Ba        10.1233437582        6.0828009146        6.1512682499
Ba        10.1072239977        2.0575717248       10.1659776061
Ba        10.1056387862        2.0403591358        6.1316759306
Ba         6.1087163089       18.1938569616       10.1692635541
Ba         6.0989016288       18.1932799399        6.1161257975
Ba         6.1155161073       14.1402939453       10.1844309934
Ba         6.0969944766       14.1357349213        6.1371742270
Ba         6.0930927215       10.0904913659       10.1902343076
Ba         6.0687465898       10.0886086209        6.1435583449
Ba         6.0917713230        6.0554296598       10.1800890958
Ba         6.0922233563        6.0402262684        6.1380158955
Ba         6.0467840852        2.0219925876       10.1609507889
Ba         6.0602337621        1.9850703806        6.1243778664
Ba         2.0585647775       18.1688354108       10.1638366838
Ba         2.0574769317       18.1696995097        6.1154126731
Ba         2.0667620520       14.1214728594       10.1823214046
Ba         2.0489335972       14.1221403687        6.1361189788
Ba         2.0533785800       10.0741222767       10.1671194627
Ba         2.0195888641       10.0840762035        6.1251147345
Ba         2.0424584382        6.0331217645       10.1540372163
Ba         2.0388095805        6.0314537530        6.1009730380
Ba         2.0037650720        1.9763259498       10.1676361041
Ba         2.0066688525        1.9853279021        6.1206248492
Ti        16.2975419719       16.0878081213        8.2163739191
Ti        16.2823103072       16.1030866469        4.2003752330
Ti        16.1095805539       12.0547542548        8.2199385724
Ti        16.1101069814       12.0625466039        4.1880925558
Ti        16.2911484081        8.0002556570        8.2160253285
Ti        16.2775671546        8.0155255916        4.2030457156
Ti        16.0951210609        3.9560492383        8.2129816484
Ti        16.1013615360        3.9720121514        4.1979126912
Ti        16.2917963576       -0.1174147905        8.2162631229
Ti        16.0999557873       -0.0983684927        4.1995126585
Ti        12.2489882597       16.2865216908        8.2290341200
Ti        12.2531941506       16.2979137718        4.1755146077
Ti        12.0647184353       12.2460982913        8.2254025442
Ti        12.0627237119       12.2486986651        4.1961884823
Ti        12.2406358321        8.1987113871        8.2280182572
Ti        12.2224836813        8.1969054292        4.2067468673
Ti        12.0609738420        4.1559045903        8.2279017587
Ti        12.0529532579        4.1600101866        4.1795742435
Ti        12.2449978180        0.0961164889        8.2293554373
Ti        12.0587514734        0.1071684027        4.1750215476
Ti         8.2044323279       16.1007585176        8.2171189621
Ti         8.1977192815       16.1183389822        4.1896903632
Ti         8.0176599851       12.0493018521        8.2253337384
Ti         8.0117913869       12.0625100041        4.1967706424
Ti         8.1977621620        8.0097311946        8.2282093059
Ti         8.1845985363        8.0175303955        4.1948682848
Ti         8.0079392208        3.9588381231        8.2149440048
Ti         8.0103396986        3.9693307449        4.1917149152
Ti         8.1973849964       -0.1097140540        8.0312819297
Ti         8.0116662871       -0.0982197274        3.9900627671
Ti         4.1664119054       16.0690055441        8.2092558986
Ti         4.1588570400       16.1044191959        4.1914734275
Ti         3.9804103770       12.0504560365        8.2236268322
Ti         3.9651323957       12.0541798071        4.1748198688
Ti         4.1549699556        7.9781187984        8.2073239625
Ti         4.1415137014        8.0064554742        4.1982272771
Ti         3.9611625571        3.9595715799        8.2138335238
Ti         3.9662164107        3.9589119595        4.1722381350
Ti         4.1578792396       -0.1238746677        8.2188408438
Ti         3.9672148595       -0.1040217715        4.1735196649
Ti         0.1111032079       16.0758511973        8.2119169842
Ti         0.0973617281       16.0942262606        4.1945009867
Ti        -0.0908870612       12.0366101801        8.2247228224
Ti        -0.1050215091       12.0514759980        4.1754355174
Ti         0.1008032375        7.9693579753        8.0343108996
Ti         0.0906334324        8.0069525916        3.9919870212
Ti        -0.1079049848        3.9502050157        8.2199633233
Ti        -0.1054128444        3.9562179733        4.1740440907
Ti         0.1019456675       -0.1311905443        8.0298219369
Ti        -0.0988001872       -0.1080660854        3.9877205697
O        16.1768769381       16.1884535185       10.0868600143
O        16.1771235592       18.2710945745        8.0945099349
O        18.1733774679       16.1856763070        8.0939783931
O        16.1761721547       16.1950600413        6.0631078619
O        16.1837659735       18.2745524178        4.0799792707
O        18.1730273735       16.1918006323        4.0798066656
O        16.1825426718       12.1721582197       10.0876352017
O        16.1840674935       14.2379364563        8.0926585490
O        18.2818196859       12.1683714449        8.0967003837
O        16.2502246430       12.1715858631        6.0398671841
O        16.1822610476       14.2463154008        4.0793037661
O        18.2736470968       12.1718497118        4.0705967605
O        16.1749951251        8.0971937034       10.0891247119
O        16.1821819040       10.1774791086        8.0937526522
O        18.1737202555        8.0942579722        8.1004450681
O        16.1744242511        8.1041965635        6.0654676968
O        16.1803341042       10.1746207351        4.0797195770
O        18.1685874737        8.1004218589        4.0846197945
O        16.1850969812        4.0815549271       10.0859176728
O        16.1817158447        6.1529478213        8.0926022607
O        18.2730240591        4.0784863189        8.0928429758
O        16.1950496390        4.0835748215        6.0610238756
O        16.1802825218        6.1569391992        4.0801298219
O        18.2695867520        4.0837142590        4.0758403192
O        16.1805189054        0.0015351256       10.0847184220
O        16.1800702665        2.0845718017        8.0932795963
O        18.1700073038       -0.0007783106        8.0996116950
O        16.1809362418        0.0031153598        6.0685391241
O        16.1902219313        2.0879751907        4.0805021983
O        18.2738587803        0.0030177183        4.0826665438
O        12.1608343213       16.1773766283       10.0865716699
O        12.1599033753       18.1732364808        8.0927139374
O        14.1032898806       16.1812074385        8.0918391641
O        12.1578816579       16.1750431880        6.0216650028
O        12.1689228427       18.1768220548        4.0751038718
O        14.1244900740       16.1873245937        4.0738816363
O        12.1676017518       12.1607636419       10.0863019133
O        12.1670308259       14.1068353293        8.0928121638
O        14.2499532653       12.1676412695        8.0894465365
O        12.1730352784       12.1538501126        6.0574272787
O        12.1682548462       14.1039259496        4.0777905777
O        14.2475405021       12.1686516420        4.0830705271
O        12.1573995652        8.0880845797       10.0898384729
O        12.1673296380       10.0850492947        8.0953049359
O        14.0996278563        8.0922789690        8.0907835076
O        12.0981547300        8.0879172975        6.0631887615
O        12.1653301332       10.0849081654        4.0815896004
O        14.0970578690        8.0935301646        4.0851390238
O        12.1701947623        4.0704772702       10.0864314468
O        12.1667090675        6.0131948833        8.0924252302
O        14.2394388953        4.0763136151        8.0921523722
O        12.1723244680        4.0615355211        6.0265569069
O        12.1636254851        6.0237653156        4.0771193996
O        14.2468269423        4.0801567641        4.0782363030
O        12.1678488681       -0.0027932591       10.0902667781
O        12.1648396173        1.9887098550        8.0932778542
O        14.1030694257       -0.0012577489        8.0922007673
O        12.1679066286       -0.0040352213        6.0163051229
O        12.1713994455        1.9906205244        4.0739381297
O        14.2462324974        0.0021353646        4.0771156480
O         8.0892198663       16.1810306031       10.0876404281
O         8.0891648863       18.2724138924        8.1016994475
O        10.0849556651       16.1815251757        8.0922754163
O         8.0886889870       16.2473138296        6.0473668841
O         8.0984206105       18.2789767083        4.0777050697
O        10.0828490687       16.1847127032        4.0768628184
O         8.0958884897       12.1650955069       10.0854080735
O         8.0929210212       14.2488567783        8.0891944227
O        10.1750551597       12.1674865994        8.0945498026
O         8.1060868660       12.1722256461        6.0557825387
O         8.0892527448       14.2534208335        4.0828594661
O        10.1749416509       12.1693368951        4.0808660335
O         8.0875613643        8.0935360042       10.0891670020
O         8.0918175075       10.1736417907        8.0935539696
O        10.0814015072        8.0935169546        8.0972674902
O         8.0860766086        8.1081541374        6.0450202993
O         8.0915180306       10.1781361358        4.0794262075
O        10.0827659307        8.0950127036        4.0773824339
O         8.1010609135        4.0797698687       10.0882797445
O         8.0921339349        6.1574926907        8.0923983655
O        10.1762824268        4.0778787119        8.0932232587
O         8.1046776854        4.0833734792        6.0591515843
O         8.0911876371        6.1571957216        4.0789430981
O        10.1720205190        4.0800466345        4.0774085982
O         8.0933329676        0.0013782676       10.1786457571
O         8.0921637766        2.0858925160        8.0988928889
O        10.0844900347       -0.0011738988        8.0960380826
O         8.0923280293        0.0033008065        6.1605535099
O         8.0988085626        2.0886351914        4.0841876939
O        10.1760479809        0.0024697989        4.0814439160
O         4.0718868742       16.1807204460       10.0841804354
O         4.0706071359       18.2692611456        8.0930152842
O         6.0188939863       16.1850823601        8.0919308758
O         4.0619164505       16.1889030820        6.0646753380
O         4.0723836652       18.2782398017        4.0735806861
O         6.0182631020       16.2515671221        4.0772254326
O         4.0815440858       12.1673736055       10.0837851321
O         4.0804699067       14.1898051426        8.0917056416
O         6.1520498408       12.1697976419        8.0918334009
O         4.0860817154       12.1706873371        6.0181037933
O         4.0809233277       14.2462670976        4.0771237951
O         6.1545039532       12.1737429113        4.0768097663
O         4.0687589141        8.0922928129       10.0845308372
O         4.0779336736       10.1790709283        8.0921955967
O         6.0124812401        8.0949939630        8.0896379997
O         4.0082714914        8.0960333716        6.0695552063
O         4.0752382667       10.1781239675        4.0775448028
O         6.0124140556        8.1038040319        4.0834251650
O         4.0829432744        4.0796036122       10.0818485162
O         4.0783150558        6.1005370589        8.0909261854
O         6.1520326501        4.0805998899        8.0917247164
O         4.0847369548        4.0811185744        6.0177247031
O         4.0734748601        6.1508354849        4.0751783938
O         6.1540293146        4.0849033262        4.0757649664
O         4.0780975678        0.0008928612       10.0874398330
O         4.0765643231        2.0882193228        8.0897730770
O         6.0145895628        0.0020154775        8.0965796727
O         4.0767619764        0.0029650191        6.0189858701
O         4.0829732033        2.0869153017        4.0734249236
O         6.1553955599        0.0046973213        4.0814038138
O        -0.0026756237       16.1827769203       10.0877663684
O        -0.0021424566       18.2663984808        8.0972862516
O         1.9912747456       16.1819964297        8.0935502716
O        -0.0037127521       16.1911906056        6.0621254178
O        -0.0008134929       18.2762976615        4.0818349727
O         1.9849650547       16.1952261062        4.0780670548
O         0.0015598640       12.1684798559       10.0840385129
O         0.0021495754       14.2315611886        8.0919984252
O         2.0881073533       12.1675893875        8.0919068155
O         0.0046527596       12.1715094484        6.0206609759
O        -0.0002681142       14.2454177829        4.0772988548
O         2.0869685905       12.1720737284        4.0750939638
O        -0.0033335109        8.0945163117       10.1770205258
O         0.0000577387       10.1785305714        8.0976692848
O         1.9833822300        8.0908644448        8.1033507454
O        -0.0049140696        8.0950055457        6.1598672211
O        -0.0023017927       10.1762697859        4.0820916446
O         1.9810914882        8.1029912583        4.0786346625
O         0.0030493642        4.0798930171       10.0863384285
O         0.0017173087        6.1016734217        8.0955366611
O         2.0869121209        4.0780136323        8.0901351170
O         0.0040418450        4.0806945456        6.0186394359
O        -0.0014135838        6.1569694396        4.0816800889
O         2.0868410733        4.0816408153        4.0733170104
O        -0.0017896010       -0.0000605376       10.1818473342
O        -0.0015810273        2.0879417114        8.0965663690
O         1.9894393390       -0.0003623401        8.0966885602
O        -0.0011745919        0.0014290555        6.1581849577
O         0.0016648269        2.0846890602        4.0817066634
O         2.0836879436        0.0034574947        4.0812786581
Ba        18.1967947552       18.2434898649       14.2365763739
Ba        18.2759005096       14.1796068040       14.2637630097
Ba        18.2313337022       10.1345153635       14.2449296304
Ba        18.2051914536        6.1010837331       14.2293415747
Ba        18.1765040453        2.0440017368       14.2233895883
Ba        14.1383394729       18.2613963510       14.2681150908
Ba        14.2054345171       14.2131486005       14.2390080021
Ba        14.1747043446       10.1651845541       14.2480568456
Ba        14.1443231801        6.1225070731       14.2241408555
Ba        14.1302948641        2.0757716420       14.2353239802
Ba        10.0867907344       18.3087262417       14.2710092755
Ba        10.1547917130       14.2263078314       14.2452659546
Ba        10.1286606392       10.1844452947       14.2561058728
Ba        10.0745982234        6.1244111819       14.2460520568
Ba        10.0422172864        2.0776995267       14.2617430097
Ba         6.0373253025       18.2722356887       14.2330163561
Ba         6.1091529215       14.2110153582       14.2340626847
Ba         6.0831284585       10.1421857116       14.2376214322
Ba         6.0341148536        6.1013650075       14.2535430197
Ba         6.0368347304        2.0681050706       14.2099226625
Ba         1.9807685608       18.2639660472       14.2580650941
Ba         2.0632287542       14.1869258482       14.2414297441
Ba         2.0299400839       10.0984040076       14.2453866590
Ba         1.9918011481        6.1077731116       14.2562750309
Ba         1.9478809564        2.0282909999       14.2279929718
Ti        16.0700608852       16.3092929945       16.0529310721
Ti        16.3147352612       16.0945586405       12.1442480310
Ti        16.3161089630       12.2747536026       16.0630393506
Ti        16.3076663441       12.0586737958       12.1463910641
Ti        16.0657072849        8.2217961646       16.0453244637
Ti        16.3055466838        8.0034121201       12.1393726794
Ti        16.0698400630        4.2045030603       16.0524943802
Ti        16.0905163173        3.9598293371       12.1357328848
Ti        16.0779847227        0.1413086421       16.0440357355
Ti        16.0961669942       -0.1159831683       12.1436886808
Ti        12.0099601065       16.3220089263       16.0650556620
Ti        12.2550505826       16.3150303532       12.1542755513
Ti        12.2914632645       12.2886473073       16.0728666863
Ti        12.2580643383       12.2637036424       12.1485588846
Ti        12.0145767795        8.2140840702       16.0465227505
Ti        12.2494279511        8.2143307131       12.1498310286
Ti        12.0297375772        4.2030639569       16.0505581445
Ti        12.0392440092        4.1677832720       12.1548383659
Ti        12.0425121577        0.1784947860       16.0684205605
Ti        12.0329887975        0.1196083323       12.1639516246
Ti         7.9692512089       16.3477594203       16.0564946067
Ti         8.2048597680       16.3192596776       12.1465054891
Ti         8.2103870729       12.2979668535       16.0515792679
Ti         8.2064419679       12.2562581629       12.1527838026
Ti         7.9738078865        8.2197180280       16.0589476429
Ti         8.1925855925        8.2028622992       12.1560481382
Ti         7.9503931942        4.1833389346       16.0689859259
Ti         7.9918761284        4.1608138363       12.1413357488
Ti         7.9163003531        0.1288130588       16.0736705163
Ti         7.9755779422        0.1198107278       12.0484559252
Ti         3.9226616732       16.3189122068       16.0473344176
Ti         4.1662129900       16.0904750528       12.1358913329
Ti         4.1942100982       12.2727308385       16.0423339699
Ti         4.1655643187       12.0425011402       12.1459843888
Ti         3.9485420128        8.2240043006       16.0694791721
Ti         4.1506192245        7.9897515745       12.1408232381
Ti         3.9025544444        4.1475980762       16.0514706098
Ti         3.9375182219        3.9524885661       12.1468834140
Ti         3.9541261213        0.1718203723       16.0463155295
Ti         3.9548872186       -0.1172669405       12.1381517217
Ti        -0.1156667534       16.3281174209       16.0619093228
Ti         0.1224374445       16.0965140753       12.1387564576
Ti         0.1723621317       12.2287228073       16.0601427680
Ti         0.1179745726       12.0366585386       12.1484445619
Ti        -0.1671079960        8.2001490212       16.0610162687
Ti         0.1071771103        7.9747184588       12.0453958252
Ti        -0.1275731308        4.1825984480       16.0540118798
Ti        -0.1234207809        3.9637144969       12.1384899508
Ti        -0.1697570021        0.1297763257       16.0533409953
Ti        -0.1181016836       -0.1217685830       12.0425279768
O        16.2525340629       18.1002016539       16.1515471298
O        18.3422361898       16.1635572119       16.1500431468
O        16.1816000365       16.1787272717       14.1433660772
O        16.1812460690       18.2700283710       12.1346059974
O        18.1682765119       16.1843523883       12.1331709557
O        16.1834913594       14.0806466129       16.2111582966
O        18.1006087666       12.0904319949       16.1499386628
O        16.1736179044       12.1724920032       14.1437848087
O        16.1776524696       14.2435404126       12.1336970536
O        18.1705455865       12.1697508815       12.1340942361
O        16.1800352991       10.0162716987       16.1498421580
O        18.2758592356        8.0820955421       16.1519680892
O        16.1769726733        8.0940901799       14.1382594329
O        16.1785015821       10.1874281062       12.1342292413
O        18.1677520503        8.0948595081       12.1371695659
O        16.2566749191        5.9975574622       16.1540565304
O        18.3360209354        4.0024780239       16.1505085824
O        16.1819144547        4.0818200640       14.1465912000
O        16.1810592661        6.1601067442       12.1329919775
O        18.2679965897        4.0800458931       12.1337776298
O        16.1889925516        1.9289678406       16.1487096282
O        18.2670100267       -0.0086535770       16.1514718749
O        16.1823143475        0.0005512088       14.1423029823
O        16.1855981370        2.0935145591       12.1333990818
O        18.2614149096       -0.0002880456       12.1367924708
O        12.1743531837       18.0971894445       16.2145765035
O        14.2635963446       16.1732187738       16.1516735655
O        12.1621708210       16.1794925020       14.1515499627
O        12.1670149347       18.1756003814       12.1346162816
O        14.0960930762       16.1825140309       12.1350473001
O        12.1697820722       14.0855500032       16.2205056175
O        14.0860951885       12.0937791924       16.2183798286
O        12.1652352780       12.1671524547       14.1632124639
O        12.1573659262       14.1090254370       12.1361084145
O        14.1079986846       12.1671482234       12.1343277704
O        12.1641402083       10.0100263697       16.1519966083
O        14.2577086614        8.0764072112       16.1520407172
O        12.1593448166        8.0883693548       14.1419322722
O        12.1592745237       10.0809239815       12.1360760379
O        14.0953112451        8.0944265141       12.1339504748
O        12.1759937207        6.0080490325       16.1521474602
O        14.2723047499        4.0721751323       16.2113882743
O        12.1721340160        4.0777402194       14.1431293567
O        12.1648125304        6.0140992032       12.1344129662
O        14.2455478507        4.0778827161       12.1330817426
O        12.1783800637        1.9848089459       16.1486072940
O        14.2584787512       -0.0119786982       16.1561114021
O        12.1711096752        0.0001455114       14.1514775735
O        12.1685619906        1.9865254646       12.1359975090
O        14.2476525074        0.0004227292       12.1348298645
O         8.0965425120       18.1617754605       16.1539272990
O        10.1850235043       16.1739674216       16.1497397197
O         8.0865016927       16.1816316312       14.1447282634
O         8.0933066448       18.1677878439       12.1382613144
O        10.0739080419       16.1810704973       12.1352163178
O         8.0874779483       14.0892562532       16.1522800661
O        10.0167985564       12.1544794152       16.1531759111
O         8.0863466484       12.1634503287       14.1431116128
O         8.0893671920       14.1010791110       12.1348516119
O        10.0801833354       12.1616069440       12.1369927056
O         8.0935798714       10.0127843077       16.1513930951
O        10.1934375406        8.0803204162       16.1479107236
O         8.0877984358        8.0859681400       14.1407640013
O         8.0886809029       10.0780128362       12.1353291403
O        10.0703012557        8.0908087418       12.1346350168
O         8.0969362114        5.9898429389       16.2175378099
O        10.2392935508        4.0669174834       16.1519030593
O         8.0951624040        4.0758388376       14.1566850627
O         8.0934840603        6.0220307849       12.1353872865
O        10.1790509142        4.0710774381       12.1357179306
O         8.0984909080        1.9264865526       16.2220546041
O        10.2620237479       -0.0040976139       16.2193983343
O         8.0865238067        0.0013725630       14.2180135531
O         8.0929194011        1.9964444428       12.1367914215
O        10.1842049138       -0.0002957425       12.1869819151
O         4.0848191650       18.0975937081       16.1496950048
O         6.1772609760       16.1724518742       16.2143656930
O         4.0775985271       16.1815989681       14.1465031602
O         4.0734621341       18.2776673760       12.1334241396
O         6.0219573624       16.1833355448       12.1331253162
O         4.0816379618       14.0790748249       16.1535760856
O         6.0039538175       12.0935885594       16.1530909521
O         4.0752543288       12.1679690256       14.1416661049
O         4.0705455270       14.2428527018       12.1344576348
O         6.0146275852       12.1651792190       12.1339508179
O         4.0833067731       10.0183681764       16.1502027829
O         6.1673000355        8.0779004735       16.1549728996
O         4.0731156746        8.0887184519       14.1507857562
O         4.0700902992       10.1819698903       12.1343409962
O         6.0168254267        8.0927310107       12.1334505808
O         4.0867222691        5.9296830390       16.2205857534
O         6.1696221750        4.0025714640       16.1520291428
O         4.0770169502        4.0822931399       14.1388401132
O         4.0741435574        6.1465353670       12.1327925119
O         6.1474577505        4.0752971615       12.1347203742
O         4.0845756620        1.9852088837       16.1455595218
O         6.0990696657       -0.0082899225       16.2186780936
O         4.0823467080        0.0047598506       14.1428079282
O         4.0769518518        2.0939428908       12.1317479948
O         6.1043938064        0.0015155700       12.1380092408
O         0.0082085207       18.1124590729       16.2156317898
O         2.0994664046       16.1671665446       16.1479020968
O         0.0016590175       16.1815489778       14.1488902759
O        -0.0012324538       18.2626079017       12.1365780433
O         1.9890871095       16.1859224603       12.1329644086
O         0.0030362804       14.0084111737       16.2236893142
O         1.9886585104       12.0891030850       16.1462370836
O         0.0009117149       12.1669157688       14.1442148160
O        -0.0015390017       14.2471938123       12.1348078020
O         1.9868250169       12.1675639769       12.1330981515
O         0.0000092657       10.0192121080       16.1582747791
O         2.1623319890        8.0761118465       16.2158445079
O        -0.0014702659        8.0855813070       14.2097482824
O        -0.0018016492       10.1870810028       12.1386027870
O         1.9908016227        8.0925724613       12.1378280680
O         0.0047660619        5.9925373597       16.2201993471
O         2.0875345704        4.0025760980       16.1451420279
O         0.0003613364        4.0832732254       14.1442985514
O         0.0013528095        6.1030951018       12.1366848540
O         2.0890343678        4.0794081798       12.1333492518
O         0.0039371660        1.9227040316       16.1571812992
O         2.1639522730       -0.0074103534       16.1563643200
O        -0.0009869633       -0.0050044816       14.2075507361
O        -0.0010355464        2.0985064765       12.1371894454
O         2.0919660821        0.0000506696       12.1371838377
