     564
 i =      110, E =    -15384.7405079121
Ba        17.1755707500       17.2716613202        5.9750010000
Ba        17.1755707500       17.2716613202        1.9916670000
Ba        17.1755707500       11.5209813202        5.9750010000
Ba        17.1755707500       11.5209813202        1.9916670000
Ba        17.1755707500        5.7703013202        5.9750010000
Ba        17.1755707500        5.7703013202        1.9916670000
Ba        17.1755707500        0.0196213202        5.9750010000
Ba        17.1755707500        0.0196213202        1.9916670000
Ba        11.4503805000       17.2716613202        5.9750010000
Ba        11.4503805000       17.2716613202        1.9916670000
Ba        11.4503805000       11.5209813202        5.9750010000
Ba        11.4503805000       11.5209813202        1.9916670000
Ba        11.4503805000        5.7703013202        5.9750010000
Ba        11.4503805000        5.7703013202        1.9916670000
Ba        11.4503805000        0.0196213202        5.9750010000
Ba        11.4503805000        0.0196213202        1.9916670000
Ba         5.7251902500       17.2716613202        5.9750010000
Ba         5.7251902500       17.2716613202        1.9916670000
Ba         5.7251902500       11.5209813202        5.9750010000
Ba         5.7251902500       11.5209813202        1.9916670000
Ba         5.7251902500        5.7703013202        5.9750010000
Ba         5.7251902500        5.7703013202        1.9916670000
Ba         5.7251902500        0.0196213202        5.9750010000
Ba         5.7251902500        0.0196213202        1.9916670000
Ba         0.0000000000       17.2716613202        5.9750010000
Ba         0.0000000000       17.2716613202        1.9916670000
Ba         0.0000000000       11.5209813202        5.9750010000
Ba         0.0000000000       11.5209813202        1.9916670000
Ba         0.0000000000        5.7703013202        5.9750010000
Ba         0.0000000000        5.7703013202        1.9916670000
Ba         0.0000000000        0.0196213202        5.9750010000
Ba         0.0000000000        0.0196213202        1.9916670000
Ba        20.0381658750       20.1470013202        5.9750010000
Ba        20.0381658750       20.1470013202        1.9916670000
Ba        20.0381658750       14.3963213202        5.9750010000
Ba        20.0381658750       14.3963213202        1.9916670000
Ba        20.0381658750        8.6456413202        5.9750010000
Ba        20.0381658750        8.6456413202        1.9916670000
Ba        20.0381658750        2.8949613202        5.9750010000
Ba        20.0381658750        2.8949613202        1.9916670000
Ba        14.3129756250       20.1470013202        5.9750010000
Ba        14.3129756250       20.1470013202        1.9916670000
Ba        14.3129756250       14.3963213202        5.9750010000
Ba        14.3129756250       14.3963213202        1.9916670000
Ba        14.3129756250        8.6456413202        5.9750010000
Ba        14.3129756250        8.6456413202        1.9916670000
Ba        14.3129756250        2.8949613202        5.9750010000
Ba        14.3129756250        2.8949613202        1.9916670000
Ba         8.5877853750       20.1470013202        5.9750010000
Ba         8.5877853750       20.1470013202        1.9916670000
Ba         8.5877853750       14.3963213202        5.9750010000
Ba         8.5877853750       14.3963213202        1.9916670000
Ba         8.5877853750        8.6456413202        5.9750010000
Ba         8.5877853750        8.6456413202        1.9916670000
Ba         8.5877853750        2.8949613202        5.9750010000
Ba         8.5877853750        2.8949613202        1.9916670000
Ba         2.8625951250       20.1470013202        5.9750010000
Ba         2.8625951250       20.1470013202        1.9916670000
Ba         2.8625951250       14.3963213202        5.9750010000
Ba         2.8625951250       14.3963213202        1.9916670000
Ba         2.8625951250        8.6456413202        5.9750010000
Ba         2.8625951250        8.6456413202        1.9916670000
Ba         2.8625951250        2.8949613202        5.9750010000
Ba         2.8625951250        2.8949613202        1.9916670000
Ti        17.1755707500       20.2337905827        3.9833340000
Ti        17.1755707500       20.2337905827        0.0000000000
Ti        17.1755707500       14.4831105827        3.9833340000
Ti        17.1755707500       14.4831105827        0.0000000000
Ti        17.1755707500        8.7324305827        3.9833340000
Ti        17.1755707500        8.7324305827        0.0000000000
Ti        17.1755707500        2.9817505827        3.9833340000
Ti        17.1755707500        2.9817505827        0.0000000000
Ti        11.4503805000       20.2337905827        3.9833340000
Ti        11.4503805000       20.2337905827        0.0000000000
Ti        11.4503805000       14.4831105827        3.9833340000
Ti        11.4503805000       14.4831105827        0.0000000000
Ti        11.4503805000        8.7324305827        3.9833340000
Ti        11.4503805000        8.7324305827        0.0000000000
Ti        11.4503805000        2.9817505827        3.9833340000
Ti        11.4503805000        2.9817505827        0.0000000000
Ti         5.7251902500       20.2337905827        3.9833340000
Ti         5.7251902500       20.2337905827        0.0000000000
Ti         5.7251902500       14.4831105827        3.9833340000
Ti         5.7251902500       14.4831105827        0.0000000000
Ti         5.7251902500        8.7324305827        3.9833340000
Ti         5.7251902500        8.7324305827        0.0000000000
Ti         5.7251902500        2.9817505827        3.9833340000
Ti         5.7251902500        2.9817505827        0.0000000000
Ti         0.0000000000       20.2337905827        3.9833340000
Ti         0.0000000000       20.2337905827        0.0000000000
Ti         0.0000000000       14.4831105827        3.9833340000
Ti         0.0000000000       14.4831105827        0.0000000000
Ti         0.0000000000        8.7324305827        3.9833340000
Ti         0.0000000000        8.7324305827        0.0000000000
Ti         0.0000000000        2.9817505827        3.9833340000
Ti         0.0000000000        2.9817505827        0.0000000000
Ti        20.0381658750       17.3584505827        3.9833340000
Ti        20.0381658750       17.3584505827        0.0000000000
Ti        20.0381658750       11.6077705827        3.9833340000
Ti        20.0381658750       11.6077705827        0.0000000000
Ti        20.0381658750        5.8570905827        3.9833340000
Ti        20.0381658750        5.8570905827        0.0000000000
Ti        20.0381658750        0.1064105827        3.9833340000
Ti        20.0381658750        0.1064105827        0.0000000000
Ti        14.3129756250       17.3584505827        3.9833340000
Ti        14.3129756250       17.3584505827        0.0000000000
Ti        14.3129756250       11.6077705827        3.9833340000
Ti        14.3129756250       11.6077705827        0.0000000000
Ti        14.3129756250        5.8570905827        3.9833340000
Ti        14.3129756250        5.8570905827        0.0000000000
Ti        14.3129756250        0.1064105827        3.9833340000
Ti        14.3129756250        0.1064105827        0.0000000000
Ti         8.5877853750       17.3584505827        3.9833340000
Ti         8.5877853750       17.3584505827        0.0000000000
Ti         8.5877853750       11.6077705827        3.9833340000
Ti         8.5877853750       11.6077705827        0.0000000000
Ti         8.5877853750        5.8570905827        3.9833340000
Ti         8.5877853750        5.8570905827        0.0000000000
Ti         8.5877853750        0.1064105827        3.9833340000
Ti         8.5877853750        0.1064105827        0.0000000000
Ti         2.8625951250       17.3584505827        3.9833340000
Ti         2.8625951250       17.3584505827        0.0000000000
Ti         2.8625951250       11.6077705827        3.9833340000
Ti         2.8625951250       11.6077705827        0.0000000000
Ti         2.8625951250        5.8570905827        3.9833340000
Ti         2.8625951250        5.8570905827        0.0000000000
Ti         2.8625951250        0.1064105827        3.9833340000
Ti         2.8625951250        0.1064105827        0.0000000000
O        17.1755707500       20.0595449787        5.9750010000
O        17.1755707500       20.0595449787        1.9916670000
O        17.1755707500       14.3088649787        5.9750010000
O        17.1755707500       14.3088649787        1.9916670000
O        17.1755707500        8.5581849787        5.9750010000
O        17.1755707500        8.5581849787        1.9916670000
O        17.1755707500        2.8075049787        5.9750010000
O        17.1755707500        2.8075049787        1.9916670000
O        11.4503805000       20.0595449787        5.9750010000
O        11.4503805000       20.0595449787        1.9916670000
O        11.4503805000       14.3088649787        5.9750010000
O        11.4503805000       14.3088649787        1.9916670000
O        11.4503805000        8.5581849787        5.9750010000
O        11.4503805000        8.5581849787        1.9916670000
O        11.4503805000        2.8075049787        5.9750010000
O        11.4503805000        2.8075049787        1.9916670000
O         5.7251902500       20.0595449787        5.9750010000
O         5.7251902500       20.0595449787        1.9916670000
O         5.7251902500       14.3088649787        5.9750010000
O         5.7251902500       14.3088649787        1.9916670000
O         5.7251902500        8.5581849787        5.9750010000
O         5.7251902500        8.5581849787        1.9916670000
O         5.7251902500        2.8075049787        5.9750010000
O         5.7251902500        2.8075049787        1.9916670000
O         0.0000000000       20.0595449787        5.9750010000
O         0.0000000000       20.0595449787        1.9916670000
O         0.0000000000       14.3088649787        5.9750010000
O         0.0000000000       14.3088649787        1.9916670000
O         0.0000000000        8.5581849787        5.9750010000
O         0.0000000000        8.5581849787        1.9916670000
O         0.0000000000        2.8075049787        5.9750010000
O         0.0000000000        2.8075049787        1.9916670000
O        21.5064710673       21.4781457238        3.9833340000
O        21.5064710673       21.4781457238        0.0000000000
O        21.5064710673       15.7274657238        3.9833340000
O        21.5064710673       15.7274657238        0.0000000000
O        21.5064710673        9.9767857238        3.9833340000
O        21.5064710673        9.9767857238        0.0000000000
O        21.5064710673        4.2261057238        3.9833340000
O        21.5064710673        4.2261057238        0.0000000000
O        15.7812808173       21.4781457238        3.9833340000
O        15.7812808173       21.4781457238        0.0000000000
O        15.7812808173       15.7274657238        3.9833340000
O        15.7812808173       15.7274657238        0.0000000000
O        15.7812808173        9.9767857238        3.9833340000
O        15.7812808173        9.9767857238        0.0000000000
O        15.7812808173        4.2261057238        3.9833340000
O        15.7812808173        4.2261057238        0.0000000000
O        10.0560905673       21.4781457238        3.9833340000
O        10.0560905673       21.4781457238        0.0000000000
O        10.0560905673       15.7274657238        3.9833340000
O        10.0560905673       15.7274657238        0.0000000000
O        10.0560905673        9.9767857238        3.9833340000
O        10.0560905673        9.9767857238        0.0000000000
O        10.0560905673        4.2261057238        3.9833340000
O        10.0560905673        4.2261057238        0.0000000000
O         4.3309003173       21.4781457238        3.9833340000
O         4.3309003173       21.4781457238        0.0000000000
O         4.3309003173       15.7274657238        3.9833340000
O         4.3309003173       15.7274657238        0.0000000000
O         4.3309003173        9.9767857238        3.9833340000
O         4.3309003173        9.9767857238        0.0000000000
O         4.3309003173        4.2261057238        3.9833340000
O         4.3309003173        4.2261057238        0.0000000000
O        18.5698606827       21.4781457238        3.9833340000
O        18.5698606827       21.4781457238        0.0000000000
O        18.5698606827       15.7274657238        3.9833340000
O        18.5698606827       15.7274657238        0.0000000000
O        18.5698606827        9.9767857238        3.9833340000
O        18.5698606827        9.9767857238        0.0000000000
O        18.5698606827        4.2261057238        3.9833340000
O        18.5698606827        4.2261057238        0.0000000000
O        12.8446704327       21.4781457238        3.9833340000
O        12.8446704327       21.4781457238        0.0000000000
O        12.8446704327       15.7274657238        3.9833340000
O        12.8446704327       15.7274657238        0.0000000000
O        12.8446704327        9.9767857238        3.9833340000
O        12.8446704327        9.9767857238        0.0000000000
O        12.8446704327        4.2261057238        3.9833340000
O        12.8446704327        4.2261057238        0.0000000000
O         7.1194801827       21.4781457238        3.9833340000
O         7.1194801827       21.4781457238        0.0000000000
O         7.1194801827       15.7274657238        3.9833340000
O         7.1194801827       15.7274657238        0.0000000000
O         7.1194801827        9.9767857238        3.9833340000
O         7.1194801827        9.9767857238        0.0000000000
O         7.1194801827        4.2261057238        3.9833340000
O         7.1194801827        4.2261057238        0.0000000000
O         1.3942899327       21.4781457238        3.9833340000
O         1.3942899327       21.4781457238        0.0000000000
O         1.3942899327       15.7274657238        3.9833340000
O         1.3942899327       15.7274657238        0.0000000000
O         1.3942899327        9.9767857238        3.9833340000
O         1.3942899327        9.9767857238        0.0000000000
O         1.3942899327        4.2261057238        3.9833340000
O         1.3942899327        4.2261057238        0.0000000000
O        20.0381658750       17.1842049787        5.9750010000
O        20.0381658750       17.1842049787        1.9916670000
O        20.0381658750       11.4335249787        5.9750010000
O        20.0381658750       11.4335249787        1.9916670000
O        20.0381658750        5.6828449787        5.9750010000
O        20.0381658750        5.6828449787        1.9916670000
O        14.3129756250       17.1842049787        5.9750010000
O        14.3129756250       17.1842049787        1.9916670000
O        14.3129756250       11.4335249787        5.9750010000
O        14.3129756250       11.4335249787        1.9916670000
O        14.3129756250        5.6828449787        5.9750010000
O        14.3129756250        5.6828449787        1.9916670000
O         8.5877853750       17.1842049787        5.9750010000
O         8.5877853750       17.1842049787        1.9916670000
O         8.5877853750       11.4335249787        5.9750010000
O         8.5877853750       11.4335249787        1.9916670000
O         8.5877853750        5.6828449787        5.9750010000
O         8.5877853750        5.6828449787        1.9916670000
O         2.8625951250       17.1842049787        5.9750010000
O         2.8625951250       17.1842049787        1.9916670000
O         2.8625951250       11.4335249787        5.9750010000
O         2.8625951250       11.4335249787        1.9916670000
O         2.8625951250        5.6828449787        5.9750010000
O         2.8625951250        5.6828449787        1.9916670000
O        18.6438759423       18.6028057238        3.9833340000
O        18.6438759423       18.6028057238        0.0000000000
O        18.6438759423       12.8521257238        3.9833340000
O        18.6438759423       12.8521257238        0.0000000000
O        18.6438759423        7.1014457238        3.9833340000
O        18.6438759423        7.1014457238        0.0000000000
O        18.6438759423        1.3507657238        3.9833340000
O        18.6438759423        1.3507657238        0.0000000000
O        12.9186856923       18.6028057238        3.9833340000
O        12.9186856923       18.6028057238        0.0000000000
O        12.9186856923       12.8521257238        3.9833340000
O        12.9186856923       12.8521257238        0.0000000000
O        12.9186856923        7.1014457238        3.9833340000
O        12.9186856923        7.1014457238        0.0000000000
O        12.9186856923        1.3507657238        3.9833340000
O        12.9186856923        1.3507657238        0.0000000000
O         7.1934954423       18.6028057238        3.9833340000
O         7.1934954423       18.6028057238        0.0000000000
O         7.1934954423       12.8521257238        3.9833340000
O         7.1934954423       12.8521257238        0.0000000000
O         7.1934954423        7.1014457238        3.9833340000
O         7.1934954423        7.1014457238        0.0000000000
O         7.1934954423        1.3507657238        3.9833340000
O         7.1934954423        1.3507657238        0.0000000000
O         1.4683051923       18.6028057238        3.9833340000
O         1.4683051923       18.6028057238        0.0000000000
O         1.4683051923       12.8521257238        3.9833340000
O         1.4683051923       12.8521257238        0.0000000000
O         1.4683051923        7.1014457238        3.9833340000
O         1.4683051923        7.1014457238        0.0000000000
O         1.4683051923        1.3507657238        3.9833340000
O         1.4683051923        1.3507657238        0.0000000000
O        21.4324558077       18.6028057238        3.9833340000
O        21.4324558077       18.6028057238        0.0000000000
O        21.4324558077       12.8521257238        3.9833340000
O        21.4324558077       12.8521257238        0.0000000000
O        21.4324558077        7.1014457238        3.9833340000
O        21.4324558077        7.1014457238        0.0000000000
O        21.4324558077        1.3507657238        3.9833340000
O        21.4324558077        1.3507657238        0.0000000000
O        15.7072655577       18.6028057238        3.9833340000
O        15.7072655577       18.6028057238        0.0000000000
O        15.7072655577       12.8521257238        3.9833340000
O        15.7072655577       12.8521257238        0.0000000000
O        15.7072655577        7.1014457238        3.9833340000
O        15.7072655577        7.1014457238        0.0000000000
O        15.7072655577        1.3507657238        3.9833340000
O        15.7072655577        1.3507657238        0.0000000000
O         9.9820753077       18.6028057238        3.9833340000
O         9.9820753077       18.6028057238        0.0000000000
O         9.9820753077       12.8521257238        3.9833340000
O         9.9820753077       12.8521257238        0.0000000000
O         9.9820753077        7.1014457238        3.9833340000
O         9.9820753077        7.1014457238        0.0000000000
O         9.9820753077        1.3507657238        3.9833340000
O         9.9820753077        1.3507657238        0.0000000000
O         4.2568850577       18.6028057238        3.9833340000
O         4.2568850577       18.6028057238        0.0000000000
O         4.2568850577       12.8521257238        3.9833340000
O         4.2568850577       12.8521257238        0.0000000000
O         4.2568850577        7.1014457238        3.9833340000
O         4.2568850577        7.1014457238        0.0000000000
O         4.2568850577        1.3507657238        3.9833340000
O         4.2568850577        1.3507657238        0.0000000000
Ba        17.1869825263       17.2805098789       10.0595418270
Ba        17.2075511035       11.5464222696       10.0678247865
Ba        17.1993510336        5.7825406098       10.0667851578
Ba        17.1704534422        0.0261135231       10.0568014749
Ba        11.4598737294       17.2822280294       10.0614965494
Ba        11.4747873385       11.5337015325       10.0766753719
Ba        11.4665706986        5.7791510130       10.0614984574
Ba        11.4474204170        0.0230141393       10.0566413729
Ba         5.7364432071       17.2850862469       10.0572137648
Ba         5.7496649747       11.5500667135       10.0598969130
Ba         5.7419645560        5.7819941835       10.0700212154
Ba         5.7224061566        0.0230251112       10.0568969178
Ba         0.0137647987       17.2855011249       10.0599803740
Ba         0.0306589929       11.5497963782       10.0649869214
Ba         0.0230410367        5.7846337686       10.0659054917
Ba        -0.0052708820        0.0236781318       10.0576229552
Ba        20.0253723107       20.1249222448       10.0519574710
Ba        20.0593784370       14.4291843905       10.0632454203
Ba        20.0608147206        8.6632617924       10.0685129882
Ba        20.0342575383        2.8849205866       10.0717394911
Ba        14.3005536184       20.1257853249       10.0513119930
Ba        14.3391929669       14.4265621740       10.0608665470
Ba        14.3360728556        8.6620566107       10.0703886650
Ba        14.3091244548        2.8827325101       10.0708561557
Ba         8.5738081751       20.1208213860       10.0517605762
Ba         8.6138935066       14.4235530454       10.0699092323
Ba         8.6074053000        8.6553505576       10.0684332744
Ba         8.5838580572        2.8842805874       10.0718412789
Ba         2.8514228754       20.1216012249       10.0525910744
Ba         2.8856932921       14.4311420814       10.0624441300
Ba         2.8817968473        8.6630546347       10.0663394792
Ba         2.8597775586        2.8863066952       10.0727666329
Ti        17.1464346153       20.2702593296       11.8276397298
Ti        17.1687375612       20.1975090400        7.9307980331
Ti        17.2011778865       14.5475654920       11.8617397040
Ti        17.1901856817       14.5102569796        7.9408009438
Ti        17.1923221437        8.7817232093       11.8651766074
Ti        17.1961294220        8.7726881148        7.9525613379
Ti        17.1761391714        2.9956757369       11.8475561969
Ti        17.1646634043        3.0182168946        7.9655143969
Ti        11.4207850433       20.2704000537       11.8288974534
Ti        11.4472769575       20.1952739871        7.9320944743
Ti        11.4878016841       14.5444638927       11.8622297689
Ti        11.4611620242       14.5076519038        7.9414344260
Ti        11.4770732570        8.7606964284       11.8679125299
Ti        11.4725942073        8.7766185875        7.9595119105
Ti        11.4517381047        2.9957272004       11.8473332302
Ti        11.4368312128        3.0190945728        7.9658734440
Ti         5.6953033909       20.2703890838       11.8281674421
Ti         5.7207965509       20.1964243311        7.9336080519
Ti         5.7499491322       14.5565741319       11.8621400181
Ti         5.7352822916       14.5155136969        7.9409120256
Ti         5.7374301501        8.7811487915       11.8624551422
Ti         5.7465076259        8.7687692339        7.9500784197
Ti         5.7264899438        2.9958586429       11.8481263142
Ti         5.7129591776        3.0167348573        7.9655328483
Ti        -0.0278617188       20.2694900554       11.8286311250
Ti         0.0004945607       20.1969195022        7.9322441993
Ti         0.0247002085       14.5549769783       11.8629857338
Ti         0.0094610279       14.5139367407        7.9394513037
Ti         0.0155551672        8.7826338259       11.8641390102
Ti         0.0204561549        8.7708238745        7.9495639412
Ti         0.0010592578        2.9972850939       11.8481517005
Ti        -0.0121878968        3.0190294194        7.9670093869
Ti        20.0501797163       17.4194062832       11.8661284449
Ti        20.0347896805       17.3723658909        7.9347058515
Ti        20.0793939273       11.6746865222       11.8616400073
Ti        20.0576122561       11.6419410388        7.9448252478
Ti        20.0682003178        5.8872751090       11.8641651425
Ti        20.0624353807        5.8987922387        7.9577513306
Ti        20.0363219613        0.0911097816       12.0768418082
Ti        20.0352538917        0.0318156081        7.9856455051
Ti        14.3263981926       17.4204976781       11.8642569348
Ti        14.3094911733       17.3670209764        7.9332822826
Ti        14.3499228733       11.6721590314       11.8619791371
Ti        14.3308330526       11.6462646606        7.9493374201
Ti        14.3440088707        5.8841889791       11.8627483824
Ti        14.3371857140        5.8971816822        7.9585632691
Ti        14.3113482002        0.0915329197       12.0764115194
Ti        14.3109141171        0.0348088779        7.9853219406
Ti         8.5974787358       17.4194614365       11.8661665942
Ti         8.5847561525       17.3672479985        7.9347854151
Ti         8.6019129980       11.6564013612       11.8647229605
Ti         8.6041593197       11.6430059662        7.9510682354
Ti         8.6158784524        5.8855324862       11.8652165008
Ti         8.5837248242        5.8975174856        7.9592930870
Ti         8.5858238263        0.0908116630       12.0762469964
Ti         8.5852654776        0.0314097527        7.9850458466
Ti         2.8741687824       17.4186630227       11.8658708167
Ti         2.8586334807       17.3679064003        7.9325420983
Ti         2.9008665079       11.6759466097       11.8608664283
Ti         2.8783619492       11.6411807862        7.9447415958
Ti         2.8908402519        5.8876702530       11.8647001860
Ti         2.8874862680        5.8995092456        7.9575443759
Ti         2.8614096140        0.0914485972       12.0747348191
Ti         2.8613954260        0.0351803189        7.9880686749
O        17.1722123285       20.0579087286        9.9769475454
O        17.1856215756       14.3181038782        9.9881520873
O        17.1811791786        8.5534392232        9.9858446564
O        17.1730302963        2.7974331375        9.9621147030
O        11.4469331734       20.0608039242        9.9769135553
O        11.4598677237       14.3114777947        9.9895352656
O        11.4588268180        8.5495388548        9.9803351332
O        11.4476489366        2.7974312795        9.9619125242
O         5.7214849779       20.0617286862        9.9780396217
O         5.7330346985       14.3660578676        9.9872893772
O         5.7300145550        8.5555546846        9.9881056024
O         5.7227138947        2.7968644474        9.9629327198
O        -0.0036928453       20.0622983340        9.9771559846
O         0.0085506423       14.3674499074        9.9862706103
O         0.0055968261        8.5549261624        9.9865974015
O        -0.0026877755        2.7965830626        9.9627436660
O        21.4702925176       21.4736475893       11.9049443215
O        21.4666725215       21.4897673432        7.9802139583
O        21.5489527548       15.7293131805       11.9838940831
O        21.5353448871       15.7410252973        7.9809010704
O        21.5501061194        9.9718101971       11.9837091390
O        21.5413653281        9.9852693305        7.9838782979
O        21.5275581486        4.1554805440       11.9831702446
O        21.4814228748        4.2181028617        7.9808312971
O        15.7456527107       21.4733045303       11.9050680763
O        15.7406098454       21.4886510800        7.9803343608
O        15.8246899793       15.7262697236       11.9805916137
O        15.8114074357       15.7401004115        7.9824662802
O        15.8256675729        9.9693861233       11.9836825833
O        15.8175343444        9.9843551976        7.9846890440
O        15.8011248503        4.1553147623       11.9824334722
O        15.7560258232        4.2190701605        7.9808996347
O        10.0201553547       21.4734265794       11.9050674400
O        10.0153028928       21.4874289322        7.9788766529
O        10.1033157913       15.7160248150       11.9829357091
O        10.0872213946       15.7400525479        7.9855886622
O        10.0972389231        9.9084088950       11.9848881146
O        10.0919427855        9.9848836507        7.9848276596
O        10.0774260176        4.1543426574       11.9824617474
O        10.0311427035        4.2183149821        7.9810228521
O         4.2941496586       21.4740908108       11.9047033096
O         4.2894091144       21.4879205731        7.9795407155
O         4.3729999601       15.7297291445       11.9840288680
O         4.3589167891       15.7422868974        7.9810571923
O         4.3745252128        9.9709294420       11.9833078946
O         4.3655026766        9.9848462734        7.9846371576
O         4.3518380561        4.1551797706       11.9835214452
O         4.3056564487        4.2169073601        7.9807743489
O        18.5377372293       21.4727167159       11.9106553311
O        18.6088767264       21.4870612612        7.9797746635
O        18.5999931386       15.7263193982       11.9788703905
O        18.6048597779       15.7349273371        7.9840972691
O        18.5979301225        9.9083656906       11.9841124316
O        18.6014386030        9.9810551603        7.9844882599
O        18.5416933585        4.1524018318       11.9823192594
O        18.5343604505        4.2270644914        7.9824609972
O        12.8131219999       21.4720342464       11.9111413283
O        12.8837707542       21.4876068619        7.9797529210
O        12.8756597586       15.7263049605       11.9791076162
O        12.8794731448       15.7352716994        7.9839724675
O        12.8742739900        9.9087201949       11.9833485817
O        12.8754078629        9.9806013332        7.9847694948
O        12.8175454097        4.1531232656       11.9814644050
O        12.8101011369        4.2269817092        7.9819885448
O         7.0879825988       21.4729705124       11.9116586184
O         7.1596086006       21.4883770905        7.9803257381
O         7.1521868071       15.7296454443       11.9825098331
O         7.1546474334       15.7376297034        7.9827741162
O         7.1468642065        9.9119206217       11.9847350196
O         7.1513312718        9.9794005973        7.9836129131
O         7.0920552723        4.1525353379       11.9828377871
O         7.0848116412        4.2264994402        7.9824211862
O         1.3623065365       21.4723289663       11.9106245634
O         1.4335277172       21.4875943420        7.9800162358
O         1.4252106588       15.7292118942       11.9822159748
O         1.4290849540       15.7360549412        7.9821478824
O         1.4219311092        9.9095040056       11.9844120660
O         1.4265754343        9.9816786222        7.9845552357
O         1.3671333675        4.1531471820       11.9825425494
O         1.3583072982        4.2259032325        7.9823113441
O        20.0440698475       17.2465374423        9.9866808611
O        20.0479209027       11.4366673262        9.9881781408
O        20.0436999154        5.6733119382        9.9829192169
O        14.3176304781       17.2455741468        9.9869662789
O        14.3220622030       11.4359577171        9.9877596193
O        14.3179645789        5.6724546434        9.9823094206
O         8.5926067884       17.2452928008        9.9879948840
O         8.5938294712       11.4304004691        9.9864230266
O         8.5898360387        5.6723680104        9.9828701492
O         2.8667347162       17.2454439578        9.9873626095
O         2.8713149396       11.4373526672        9.9882774528
O         2.8676976972        5.6721599205        9.9835208654
O        18.6833063843       18.6040680155       11.9843943440
O        18.6227922336       18.6127416887        7.9746354920
O        18.6907189773       12.8410739291       11.9839619702
O        18.6789571535       12.8608124015        7.9832779545
O        18.6858864918        7.0323870735       11.9855721547
O        18.6786877577        7.1085686350        7.9846930151
O        18.6730732237        1.2767024936       11.9053554233
O        18.6746071332        1.2821661669        7.9807999335
O        12.9592476226       18.6038280564       11.9842628056
O        12.8970186241       18.6133279511        7.9766442049
O        12.9646889162       12.8442929211       11.9844657868
O        12.9533181540       12.8611466816        7.9840443064
O        12.9599856273        7.0308392033       11.9845537077
O        12.9505009386        7.1072971919        7.9836790871
O        12.9472459447        1.2767153498       11.9050393051
O        12.9492825288        1.2809714726        7.9804780025
O         7.2333549566       18.6045710028       11.9846827924
O         7.1703145843       18.6133264708        7.9768249560
O         7.2367312127       12.8460704121       11.9809134522
O         7.2281987023       12.8617934392        7.9854803947
O         7.2351845577        7.0326262004       11.9855499909
O         7.1760895153        7.1020201220        7.9838813984
O         7.2220391532        1.2763006977       11.9051265229
O         7.2236332090        1.2806655192        7.9803226851
O         1.5070595165       18.6053769928       11.9839838786
O         1.4451436459       18.6143964342        7.9758397493
O         1.5140480351       12.8443980409       11.9818821918
O         1.5031586795       12.8620991694        7.9849478800
O         1.5091575882        7.0323386987       11.9854332648
O         1.5019353008        7.1092473911        7.9847306849
O         1.4974918539        1.2766779376       11.9049051258
O         1.4995004085        1.2813492565        7.9810950056
O        21.4623010538       18.6043310023       11.9829833160
O        21.4553671149       18.6126274761        7.9750540890
O        21.4619120660       12.8500686632       11.9785857617
O        21.4667720871       12.8589379657        7.9853995960
O        21.4610140348        7.0355660090       11.9840492612
O        21.4615019875        7.1012836460        7.9838587179
O        21.3978020646        1.2747412927       11.9054920885
O        21.4003995862        1.2798335602        7.9805053587
O        15.7380469407       18.6053802895       11.9831217661
O        15.7320786240       18.6132954853        7.9750772910
O        15.7344145948       12.8462127641       11.9807850937
O        15.7393121925       12.8578565115        7.9837464008
O        15.7362348097        7.0341240732       11.9835354306
O        15.7354468745        7.1010678979        7.9835031525
O        15.6725113525        1.2758901776       11.9053308163
O        15.6742530213        1.2817589380        7.9804031739
O        10.0130051923       18.6051676322       11.9836359922
O        10.0076877931       18.6147453933        7.9763648365
O        10.0104774040       12.7850865160       11.9842812011
O        10.0149582379       12.8579681237        7.9834477521
O        10.0121195764        7.0291363324       11.9830300013
O         9.9571399940        7.1075198232        7.9836508346
O         9.9469146779        1.2749931307       11.9047532159
O         9.9491739574        1.2800906462        7.9804574094
O         4.2870326917       18.6060413475       11.9827475127
O         4.2814321788       18.6157612010        7.9771459037
O         4.2852326681       12.8497251741       11.9790159155
O         4.2898553171       12.8582676638        7.9851741656
O         4.2856342921        7.0359976350       11.9845676696
O         4.2819609303        7.1018571511        7.9838148290
O         4.2215440820        1.2753705995       11.9051840531
O         4.2246274095        1.2811202127        7.9810044590